Version 4
SHEET 1 880 680
WIRE 64 -336 -32 -336
WIRE -32 -256 -32 -336
WIRE -16 -256 -32 -256
WIRE 64 -240 64 -336
WIRE 64 -240 48 -240
WIRE 112 -240 64 -240
WIRE -128 -224 -144 -224
WIRE -16 -224 -128 -224
WIRE 496 -80 400 -80
WIRE 96 -16 80 -16
WIRE 400 0 400 -80
WIRE 416 0 400 0
WIRE 80 16 80 -16
WIRE 144 16 80 16
WIRE 496 16 496 -80
WIRE 496 16 480 16
WIRE 528 16 496 16
WIRE 544 16 528 16
WIRE 64 32 -32 32
WIRE 144 32 144 16
WIRE 320 32 144 32
WIRE 416 32 320 32
WIRE 144 48 144 32
WIRE 320 48 320 32
WIRE 528 80 528 16
WIRE -32 112 -32 32
WIRE -16 112 -32 112
WIRE 496 112 400 112
WIRE 64 128 64 32
WIRE 64 128 48 128
WIRE 144 128 144 112
WIRE 144 128 64 128
WIRE 320 128 320 112
WIRE 320 128 144 128
WIRE -128 144 -128 -224
WIRE -112 144 -128 144
WIRE -16 144 -32 144
WIRE 144 144 144 128
WIRE 320 144 320 128
WIRE 400 192 400 112
WIRE 416 192 400 192
WIRE 496 208 496 112
WIRE 496 208 480 208
WIRE 528 208 528 144
WIRE 528 208 496 208
WIRE 544 208 528 208
WIRE 144 224 144 208
WIRE 320 224 320 208
WIRE 320 224 144 224
WIRE 416 224 320 224
WIRE 144 240 144 224
WIRE 96 304 80 304
WIRE 80 336 80 304
WIRE 144 336 80 336
WIRE 144 352 144 336
FLAG 544 16 B+
FLAG 544 208 B-
FLAG 448 -16 +18
FLAG 448 48 -18
FLAG 448 240 -18
FLAG 448 176 +18
FLAG 144 -80 +18
FLAG 144 352 -18
FLAG 16 96 +18
FLAG 16 160 -18
FLAG 16 -272 B+
FLAG 16 -208 B-
FLAG -144 -224 In
FLAG 112 -240 Out
SYMBOL zener 544 144 R180
WINDOW 0 24 64 Left 2
WINDOW 3 24 0 Invisible 2
SYMATTR InstName D1
SYMATTR Value KDZ13B
SYMATTR Description Diode
SYMATTR Type diode
SYMBOL njf 96 -80 R0
SYMATTR InstName J1
SYMATTR Value J201
SYMBOL njf 96 240 R0
SYMATTR InstName J2
SYMATTR Value J201
SYMBOL cap 304 48 R0
SYMATTR InstName C1
SYMATTR Value 100n
SYMBOL cap 304 144 R0
SYMATTR InstName C2
SYMATTR Value 100n
SYMBOL OPA140 448 -48 R0
SYMATTR InstName U1
SYMBOL OPA140 448 144 R0
SYMATTR InstName U2
SYMBOL References\\LT1634-4.096 144 80 R0
SYMATTR InstName U3
SYMBOL References\\LT1634-4.096 144 176 R0
SYMATTR InstName U4
SYMBOL OPA140 16 64 R0
SYMATTR InstName U5
SYMBOL res -128 128 M90
WINDOW 0 0 56 VBottom 2
WINDOW 3 32 56 VTop 2
SYMATTR InstName R1
SYMATTR Value 10k
SYMBOL OPA140 16 -304 R0
SYMATTR InstName U6
TEXT 536 144 Left 2 ;13V
TEXT 112 -336 Left 2 ;Feedforward bootstrap.\nIf using OPA140, this is only needed if design is\n>6.5 digit due to very high CMRR rating of OPA140
